tests/data/state_estimation/pandapower/symmetric/transmission_case/pgm_sym_output.json
{
  "line": [
    {
      "id": 12,
      "energized": 1,
      "loading": 0.015481167361621107,
      "p_from": 70000001.4647055,
      "q_from": 17875439.250682466,
      "i_from": 153.44790195541083,
      "s_from": 72246325.39765336,
      "p_to": -69811465.70767058,
      "q_to": -18526220.933004946,
      "i_to": 154.81167361621107,
      "s_to": 72227845.08976975
    },
    {
      "id": 13,
      "energized": 1,
      "loading": 0.031417569346973054,
      "p_from": 139811473.02517623,
      "q_from": 43392112.69296855,
      "i_from": 313.76997564214344,
      "s_from": 146390311.95208535,
      "p_to": -139342106.5203744,
      "q_to": -39360445.66659767,
      "i_to": 314.1756934697305,
      "s_to": 144794569.41684154
    },
    {
      "id": 14,
      "energized": 1,
      "loading": 0.009315093764923376,
      "p_from": 21537211.073104657,
      "q_from": 16018612.348085014,
      "i_from": 58.24001102260585,
      "s_from": 26841151.286144257,
      "p_to": -21440344.81882143,
      "q_to": -36017515.615243,
      "i_to": 93.15093764923377,
      "s_to": 41915985.22096595
    },
    {
      "id": 15,
      "energized": 1,
      "loading": 0.009315093764923376,
      "p_from": 21537211.073104657,
      "q_from": 16018612.348085014,
      "i_from": 58.24001102260585,
      "s_from": 26841151.286144257,
      "p_to": -21440344.81882143,
      "q_to": -36017515.615243,
      "i_to": 93.15093764923377,
      "s_to": 41915985.22096595
    },
    {
      "id": 16,
      "energized": 1,
      "loading": 0.013326158155417036,
      "p_from": 21440344.818253677,
      "q_from": 36017515.601052314,
      "i_from": 93.15093762148992,
      "s_from": 41915985.208481796,
      "p_to": -21216477.033744767,
      "q_to": -53409929.69060088,
      "i_to": 133.26158155417036,
      "s_to": 57469639.70026564
    },
    {
      "id": 17,
      "energized": 1,
      "loading": 0.013326158155417036,
      "p_from": 21440344.818253677,
      "q_from": 36017515.601052314,
      "i_from": 93.15093762148992,
      "s_from": 41915985.208481796,
      "p_to": -21216477.033744767,
      "q_to": -53409929.69060088,
      "i_to": 133.26158155417036,
      "s_to": 57469639.70026564
    },
    {
      "id": 18,
      "energized": 1,
      "loading": 0.03897186006903874,
      "p_from": -133977220.01854828,
      "q_from": 100921506.0344913,
      "i_from": 388.9468893671092,
      "s_from": 167735046.61867288,
      "p_to": 134698943.88078657,
      "q_to": -94264477.50869107,
      "i_to": 389.7186006903874,
      "s_to": 164406804.00331923
    },
    {
      "id": 19,
      "energized": 1,
      "loading": 0.03130246920357212,
      "p_from": -64698933.94139838,
      "q_from": 114107124.29792064,
      "i_from": 310.9397191016667,
      "s_from": 131173121.74639495,
      "p_to": 65085145.00391308,
      "q_to": -111248013.04545872,
      "i_to": 313.02469203572116,
      "s_to": 128888310.20206195
    }
  ],
  "node": [
    {
      "id": 1,
      "energized": 1,
      "u_pu": 1.182366653898428,
      "u": 23647.33307796856,
      "u_angle": 0.03011793433700357
    },
    {
      "id": 2,
      "energized": 1,
      "u_pu": 1.17185933669542,
      "u": 23437.1867339084,
      "u_angle": 0.005551254952379799
    },
    {
      "id": 3,
      "energized": 1,
      "u_pu": 1.181860844732006,
      "u": 271827.9942883614,
      "u_angle": 0.028448157321542072
    },
    {
      "id": 4,
      "energized": 1,
      "u_pu": 1.1711499086624118,
      "u": 269364.4789923547,
      "u_angle": 0.0038510978014005205
    },
    {
      "id": 5,
      "energized": 1,
      "u_pu": 1.1568877648317124,
      "u": 266084.18591129384,
      "u_angle": -0.02614229618895941
    },
    {
      "id": 6,
      "energized": 1,
      "u_pu": 1.1295461622680367,
      "u": 259795.61732164846,
      "u_angle": -0.042022393112547976
    },
    {
      "id": 7,
      "energized": 1,
      "u_pu": 1.0825427300728296,
      "u": 248984.82791675083,
      "u_angle": -0.05715333737062595
    },
    {
      "id": 8,
      "energized": 1,
      "u_pu": 1.0589615439109905,
      "u": 243561.15509952782,
      "u_angle": -0.019434617210736763
    },
    {
      "id": 9,
      "energized": 1,
      "u_pu": 1.0335856463926252,
      "u": 237724.6986703038,
      "u_angle": -0.0020378734995263503
    },
    {
      "id": 10,
      "energized": 1,
      "u_pu": 1.0595884294222697,
      "u": 21191.768588445393,
      "u_angle": -0.017355113193280553
    },
    {
      "id": 11,
      "energized": 1,
      "u_pu": 1.0300000156077165,
      "u": 20600.00031215433,
      "u_angle": 0.0
    }
  ],
  "shunt": [
    {
      "id": 28,
      "energized": 1,
      "p": 267677.9070609275,
      "q": -2676779.0706092753,
      "i": 5.837051477691277,
      "s": 2690129.6724842787,
      "pf": 0.0995037190209989
    },
    {
      "id": 29,
      "energized": 1,
      "p": 410164.56134381326,
      "q": -4101645.6134381318,
      "i": 9.558402397270447,
      "s": 4122102.825696932,
      "pf": 0.09950371902099893
    }
  ],
  "source": [
    {
      "id": 20,
      "energized": 1,
      "p": 65085145.00390807,
      "q": -110729675.26352653,
      "i": 3599.78395840968,
      "s": 128441181.41836669,
      "pf": 0.5067311300408289
    }
  ],
  "sym_gen": [
    {
      "id": 21,
      "energized": 1,
      "p": 70000001.46470508,
      "q": 17999998.958759166,
      "i": 1764.6508724872506,
      "s": 72277245.15761544,
      "pf": 0.968492937328417
    },
    {
      "id": 22,
      "energized": 1,
      "p": 70000007.31736378,
      "q": 25000001.446667574,
      "i": 1831.0494647666387,
      "s": 74330351.11422765,
      "pf": 0.9417419165663675
    },
    {
      "id": 23,
      "energized": 1,
      "p": 70000009.93938826,
      "q": 20000001.706887327,
      "i": 1983.3993399881838,
      "s": 72801108.91868304,
      "pf": 0.9615239517515656
    }
  ],
  "sym_load": [
    {
      "id": 24,
      "energized": 1,
      "p": 96000006.46710405,
      "q": 10000000.04103674,
      "i": 209.42816018401115,
      "s": 96519434.53266162,
      "pf": 0.9946184095661916
    },
    {
      "id": 25,
      "energized": 1,
      "p": 176000009.524694,
      "q": 9999998.960148768,
      "i": 408.7700503060874,
      "s": 176283871.445732,
      "pf": 0.9983897453651885
    }
  ],
  "sym_power_sensor": [
    {
      "id": 45,
      "energized": 1,
      "p_residual": -1.5647054851797293,
      "q_residual": 1.039317535145301
    },
    {
      "id": 46,
      "energized": 1,
      "p_residual": 1.507670575051634,
      "q_residual": -0.9669950529200833
    },
    {
      "id": 47,
      "energized": 1,
      "p_residual": -8.825176252003075,
      "q_residual": -0.49296854598424034
    },
    {
      "id": 48,
      "energized": 1,
      "p_residual": 8.820374404194808,
      "q_residual": 0.06659767137762174
    },
    {
      "id": 49,
      "energized": 1,
      "p_residual": -1.1731046605234496,
      "q_residual": -0.1480850144730539
    },
    {
      "id": 50,
      "energized": 1,
      "p_residual": 1.218821427784178,
      "q_residual": 0.7152429972734353
    },
    {
      "id": 51,
      "energized": 1,
      "p_residual": -1.1331046572138348,
      "q_residual": -0.058085014131847856
    },
    {
      "id": 52,
      "energized": 1,
      "p_residual": 1.218821427784178,
      "q_residual": 0.6552429994144404
    },
    {
      "id": 53,
      "energized": 1,
      "p_residual": -1.1382536797555076,
      "q_residual": -0.7010523148665015
    },
    {
      "id": 54,
      "energized": 1,
      "p_residual": 1.1337447674009127,
      "q_residual": 1.200600877382385
    },
    {
      "id": 55,
      "energized": 1,
      "p_residual": -1.1382536797555076,
      "q_residual": -0.7010523148665015
    },
    {
      "id": 56,
      "energized": 1,
      "p_residual": 1.1337447674009127,
      "q_residual": 1.2906008777235911
    },
    {
      "id": 57,
      "energized": 1,
      "p_residual": 7.3185482847293315,
      "q_residual": -3.564491308338802
    },
    {
      "id": 58,
      "energized": 1,
      "p_residual": -7.380786570365672,
      "q_residual": 3.208691069289671
    },
    {
      "id": 59,
      "energized": 1,
      "p_residual": -2.5586016221268437,
      "q_residual": -4.797920652777066
    },
    {
      "id": 60,
      "energized": 1,
      "p_residual": 2.5960869152186206,
      "q_residual": 4.845458718705231
    },
    {
      "id": 61,
      "energized": 1,
      "p_residual": 1.5647050730649426,
      "q_residual": -0.9493116337466745
    },
    {
      "id": 62,
      "energized": 1,
      "p_residual": -1.5647050730649426,
      "q_residual": 1.0412408322224564
    },
    {
      "id": 63,
      "energized": 1,
      "p_residual": 7.327363803710796,
      "q_residual": 1.4609706902035668
    },
    {
      "id": 64,
      "energized": 1,
      "p_residual": -7.327363789499941,
      "q_residual": -1.44666757506684
    },
    {
      "id": 65,
      "energized": 1,
      "p_residual": -2.596091931650335,
      "q_residual": -4.845415475074333
    },
    {
      "id": 66,
      "energized": 1,
      "p_residual": 2.596091931650335,
      "q_residual": 4.763526533224649
    },
    {
      "id": 67,
      "energized": 1,
      "p_residual": 9.94938827147962,
      "q_residual": 1.6892127057133166
    },
    {
      "id": 68,
      "energized": 1,
      "p_residual": -9.94938827147962,
      "q_residual": -1.7168873291950604
    }
  ],
  "sym_voltage_sensor": [
    {
      "id": 34,
      "energized": 1,
      "u_residual": -0.003077968560027955
    },
    {
      "id": 35,
      "energized": 1,
      "u_residual": -0.00673390839978083
    },
    {
      "id": 36,
      "energized": 1,
      "u_residual": -0.004288361385995643
    },
    {
      "id": 37,
      "energized": 1,
      "u_residual": -0.008992354756376386
    },
    {
      "id": 38,
      "energized": 1,
      "u_residual": -0.0059112938366467915
    },
    {
      "id": 39,
      "energized": 1,
      "u_residual": -0.007321648478608722
    },
    {
      "id": 40,
      "energized": 1,
      "u_residual": -0.007916750801584271
    },
    {
      "id": 41,
      "energized": 1,
      "u_residual": -0.005099527828900108
    },
    {
      "id": 42,
      "energized": 1,
      "u_residual": -0.008670303812685631
    },
    {
      "id": 43,
      "energized": 1,
      "u_residual": -0.008588445394863697
    },
    {
      "id": 44,
      "energized": 1,
      "u_residual": -0.00031215432905185025
    }
  ],
  "transformer": [
    {
      "id": 30,
      "energized": 1,
      "loading": 0.08030805017512826,
      "p_from": -70000001.46470508,
      "q_from": -17875439.250688367,
      "i_from": 153.4479019554131,
      "s_from": 72246325.3976544,
      "p_to": 70000001.46470508,
      "q_to": 17999998.958759166,
      "i_to": 1764.6508724872506,
      "s_to": 72277245.15761544
    },
    {
      "id": 31,
      "energized": 1,
      "loading": 0.08258927901580851,
      "p_from": -70000007.3173638,
      "q_from": -24865891.76097069,
      "i_from": 159.22169258840336,
      "s_from": 74285352.50975992,
      "p_to": 70000007.31736378,
      "q_to": 25000001.446667574,
      "i_to": 1831.0494647666387,
      "s_to": 74330351.11422765
    },
    {
      "id": 32,
      "energized": 1,
      "loading": 0.14320923355780232,
      "p_from": -65085145.00390807,
      "q_from": 111248013.04541548,
      "i_from": 313.02469203562435,
      "s_from": 128888310.20202209,
      "p_to": 65085145.00390807,
      "q_to": -110729675.26352653,
      "i_to": 3599.78395840968,
      "s_to": 128441181.41836669
    },
    {
      "id": 33,
      "energized": 1,
      "loading": 0.08089012102075893,
      "p_from": -70000009.93938826,
      "q_from": -19842646.789212707,
      "i_from": 172.46950782505948,
      "s_from": 72758037.51556188,
      "p_to": 70000009.93938826,
      "q_to": 20000001.706887327,
      "i_to": 1983.3993399881842,
      "s_to": 72801108.91868304
    }
  ]
}