tests/data/state_estimation/pandapower/symmetric/transmission_case/sym_output.json
{
  "line": [
    {
      "id": 12,
      "loading": 0.015481167340552193,
      "p_from": 69999999.99938148,
      "q_from": 17875440.292546127,
      "i_from": 153.44790166698237,
      "s_from": 72246324.2356716,
      "p_to": -69811464.2429552,
      "q_to": -18526221.907462124,
      "i_to": 154.81167340552193,
      "s_to": 72227843.92400165
    },
    {
      "id": 13,
      "loading": 0.031417567985900494,
      "p_from": 139811464.2426725,
      "q_from": 43392112.244647324,
      "i_from": 313.76996201631613,
      "s_from": 146390303.43138224,
      "p_to": -139342097.77858746,
      "q_to": -39360445.60580324,
      "i_to": 314.17567985900496,
      "s_to": 144794560.98771396
    },
    {
      "id": 14,
      "loading": 0.009315093653422748,
      "p_from": 21537209.940137077,
      "q_from": 16018612.298366573,
      "i_from": 58.24000985301481,
      "s_from": 26841150.347384892,
      "p_to": -21440343.688599564,
      "q_to": -36017514.96180426,
      "i_to": 93.15093653422748,
      "s_to": 41915984.081362866
    },
    {
      "id": 15,
      "loading": 0.009315093653422748,
      "p_from": 21537209.940137077,
      "q_from": 16018612.298366573,
      "i_from": 58.24000985301481,
      "s_from": 26841150.347384892,
      "p_to": -21440343.688599564,
      "q_to": -36017514.96180426,
      "i_to": 93.15093653422748,
      "s_to": 41915984.081362866
    },
    {
      "id": 16,
      "loading": 0.013326158009529892,
      "p_from": 21440343.688663006,
      "q_from": 36017514.961808026,
      "i_from": 93.15093653430678,
      "s_from": 41915984.08139855,
      "p_to": -21216475.909088455,
      "q_to": -53409928.4961407,
      "i_to": 133.26158009529894,
      "s_to": 57469638.17498587
    },
    {
      "id": 17,
      "loading": 0.013326158009529892,
      "p_from": 21440343.688663006,
      "q_from": 36017514.961808026,
      "i_from": 93.15093653430678,
      "s_from": 41915984.08139855,
      "p_to": -21216475.909088455,
      "q_to": -53409928.4961407,
      "i_to": 133.26158009529894,
      "s_to": 57469638.17498587
    },
    {
      "id": 18,
      "loading": 0.038971858829251346,
      "p_from": -133977212.73031846,
      "q_from": 100921502.47780235,
      "i_from": 388.9468769710383,
      "s_from": 167735038.6572885,
      "p_to": 134698936.54659507,
      "q_to": -94264474.39414555,
      "i_to": 389.7185882925135,
      "s_to": 164406796.20863658
    },
    {
      "id": 19,
      "loading": 0.03130246899941322,
      "p_from": -64698936.54660743,
      "q_from": 114107119.5148945,
      "i_from": 310.93971713501713,
      "s_from": 131173118.87062971,
      "p_to": 65085147.60416007,
      "q_to": -111248008.28115617,
      "i_to": 313.0246899941322,
      "s_to": 128888307.4028808
    }
  ],
  "node": [
    {
      "id": 1,
      "u_pu": 1.1823666371478674,
      "u": 23647.332742957347,
      "u_angle": 0.030117932202067585
    },
    {
      "id": 2,
      "u_pu": 1.1718593193564009,
      "u": 23437.186387128015,
      "u_angle": 0.005551252530349022
    },
    {
      "id": 3,
      "u_pu": 1.181860827944902,
      "u": 271827.9904273275,
      "u_angle": 0.028448155174188257
    },
    {
      "id": 4,
      "u_pu": 1.1711498913537417,
      "u": 269364.4750113606,
      "u_angle": 0.003851095506824005
    },
    {
      "id": 5,
      "u_pu": 1.15688774760291,
      "u": 266084.1819486693,
      "u_angle": -0.026142297438404762
    },
    {
      "id": 6,
      "u_pu": 1.1295461450787112,
      "u": 259795.6133681036,
      "u_angle": -0.04202239391743747
    },
    {
      "id": 7,
      "u_pu": 1.0825427131925338,
      "u": 248984.8240342828,
      "u_angle": -0.05715333771093036
    },
    {
      "id": 8,
      "u_pu": 1.0589615273926989,
      "u": 243561.15130032075,
      "u_angle": -0.019434618375999836
    },
    {
      "id": 9,
      "u_pu": 1.0335856306865179,
      "u": 237724.6950578991,
      "u_angle": -0.002037873643502211
    },
    {
      "id": 10,
      "u_pu": 1.0595884128606583,
      "u": 21191.768257213167,
      "u_angle": -0.017355114588874992
    },
    {
      "id": 11,
      "u_pu": 1.0300000000010068,
      "u": 20600.000000020136,
      "u_angle": -7.142907253658858e-13
    }
  ],
  "shunt": [
    {
      "id": 28,
      "p": 267677.89908820996,
      "q": -2676778.990882099
    },
    {
      "id": 29,
      "p": 410164.5485522644,
      "q": -4101645.4855226427
    }
  ],
  "sym_gen": [
    {
      "id": 21,
      "p": 70000000.0,
      "q": 18000000.0
    },
    {
      "id": 22,
      "p": 70000000.0,
      "q": 25000000.0
    },
    {
      "id": 23,
      "p": 70000000.0,
      "q": 20000000.0
    }
  ],
  "sym_load": [
    {
      "id": 24,
      "p": 96000000.0,
      "q": 10000000.0
    },
    {
      "id": 25,
      "p": 176000000.0,
      "q": 10000000.0
    }
  ],
  "transformer": [
    {
      "id": 30,
      "loading": 0.0679214436226546,
      "p_from": -69999999.99931651,
      "q_from": -17875440.29241094,
      "i_from": 153.44790166677765,
      "s_from": 72246324.2355752,
      "p_to": 69999999.9993165,
      "q_to": 18000000.000013143,
      "i_to": 1764.6508691679433,
      "s_to": 72277243.99771193
    },
    {
      "id": 31,
      "loading": 0.07047712080596431,
      "p_from": -69999999.99946083,
      "q_from": -24865890.336969584,
      "i_from": 159.2216791396954,
      "s_from": 74285345.13734666,
      "p_to": 69999999.99946085,
      "q_to": 25000000.000011243,
      "i_to": 1831.0493101064974,
      "s_to": 74330343.73608854
    },
    {
      "id": 32,
      "loading": 0.13855574825718903,
      "p_from": -65085147.60416034,
      "q_from": 111248008.28115992,
      "i_from": 313.02468999414043,
      "s_from": 128888307.40288419,
      "p_to": 65085147.60416034,
      "q_to": -110729670.50603198,
      "i_to": 3599.7839349326146,
      "s_to": 128441178.63453974
    },
    {
      "id": 33,
      "loading": 0.07634106687001635,
      "p_from": -69999999.99999706,
      "q_from": -19842645.120742027,
      "i_from": 172.46948676897577,
      "s_from": 72758027.49791458,
      "p_to": 69999999.99999706,
      "q_to": 19999999.99999504,
      "i_to": 1983.399097843222,
      "s_to": 72801098.89280099
    }
  ]
}